%
% SU2 config file
% case description: engine nacell housing aerdynamic test
% Author: Charlie Harris
% Institutuin: Xaverian Borthers High School
%
SOLVER= EULER
%
MATH_PROBLEM= DIRECT
%
RESTART_SOL= NO
%
%
%
MACH_NUMBER= 
%
AOA= 
%
SIDESLIP_ANGLE= 0.0
%
FREESTREAM_PRESSURE= 
%
FREESTREAM_TEMPERATURE= 
%
%
REF_ORIGIN_MOMENT_X = 0
REF_ORIGIN_MOMENT_Y = 1.698
REF_ORIGIN_MOMENT_Z = 0
%
REF_LENGTH= 11.567
%
REF_AREA= 16.513
%
%
%
MARKER_EULER= ( wall, Object )
%
MARKER_SUPERSONIC_INLET= ( in, temperature, pressure, airspeed (m/s), 0.0, 0.0 )
%
MARKER_OUTLET= ( out, back pressure )
%
MARKER_PLOTTING= ( Object )
%
MARKER_MONITORING= ( wall, Object )
%
%
%
NUM_METHOD_GRAD= WEIGHTED_LEAST_SQUARES
%
CFL_NUMBER= 5.0
%
CFL_ADAPT= NO
%
CFL_ADAPT_PARAM= ( 0.1, 2.0, 5.0, 1e10 )
%
RK_ALPHA_COEFF= ( 0.66667, 0.66667, 1.000000 )
%
ITER= 10000
%
LINEAR_SOLVER= FGMRES
%
LINEAR_SOLVER_PREC= ILU
%
LINEAR_SOLVER_ERROR= 1E-6
%
LINEAR_SOLVER_ITER= 20
%
MGLEVEL= 3
%
MGCYCLE= W_CYCLE
%
MG_PRE_SMOOTH= ( 1, 2, 3, 3 )
%
MG_POST_SMOOTH= ( 0, 0, 0, 0 )
%
MG_CORRECTION_SMOOTH= ( 0, 0, 0, 0 )
%
MG_DAMP_RESTRICTION= 1.0
%
MG_DAMP_PROLONGATION= 1.0
%
%
%
%
CONV_NUM_METHOD_FLOW= HLLC
%
MUSCL_FLOW= YES
%
SLOPE_LIMITER_FLOW= NONE
%
VENKAT_LIMITER_COEFF= 0.006
%
JST_SENSOR_COEFF= ( 0.5, 0.02 )
%
TIME_DISCRE_FLOW= EULER_IMPLICIT
%
%
%
%
CONV_FIELD= RMS_DENSITY
%
CONV_RESIDUAL_MINVAL= -13
%
CONV_STARTITER= 10
%
CONV_CAUCHY_ELEMS= 100
%
CONV_CAUCHY_EPS= 1E-10
%
%
%
% do not know if section is neccessary may just be to convert file formats
MESH_FILENAME= filename.su2
%
MESH_FORMAT= SU2
%
MESH_OUT_FILENAME= mesh_out.su2
%
SOLUTION_FILENAME= solution_flow
%
SOLUTION_ADJ_FILENAME= solution_adj
%
TABULAR_FORMAT= CSV
%
CONV_FILENAME= CSV
%
RESTART_FILENAME= restart_flow
%
RESTART_ADJ_FILENAME= restart_adj
%
VOLUME_FILENAME= flow
%
VOLUME_ADJ_FILENAME= adjoint
%
GRAD_OBJFUNC_FILENAME= of_grad.dat
%
SURFACE_FILENAME= surface_flow
%
SURFACE_ADJ_FILENAME= surface_adjoint
%
% check
SCREEN_OUTPUT=(INNER_ITER, WALL_TIME, RMS_DENSITY, RMS_ENERGY, LIFT, DRAG)
%
%
%
%
DV_KIND= SCALE_GRID
%
DV_PARAM= ( 1.0 )
%
DV_VALUE= 10.0
%